Circuit: * H:\MITCHELL STUFF 2\Work\Berkeley\Berkeley_bLoop\F2017_Control\circuits\CircuitSpice\DCMotorSimulation\DCMotorSimulation.asc

Direct Newton iteration for .op point succeeded.
Ignoring empty pin current: Ix(u1:1)
Ignoring empty pin current: Ix(u1:2)
Ignoring empty pin current: Ix(u1:3)
Ignoring empty pin current: Ix(u1:1)
Ignoring empty pin current: Ix(u1:2)
Ignoring empty pin current: Ix(u1:3)

Date: Thu Sep 07 13:02:58 2017
Total elapsed time: 0.235 seconds.

tnom = 27
temp = 27
method = modified trap
totiter = 10024
traniter = 9992
tranpoints = 3693
accept = 2917
rejected = 776
matrix size = 33
fillins = 16
solver = Normal
Matrix Compiler1: 2.10 KB object code size  0.9/0.7/[0.2]
Matrix Compiler2: off  [0.4]/0.9/1.3

