Circuit: * C:\Users\Laptop\Desktop\Hyperloop\F2017_Control\circuits\CircuitSpice\DCMotorSimulation\DCMotorSimulation.asc

Direct Newton iteration for .op point succeeded.
Ignoring empty pin current: Ix(u1:1)
Ignoring empty pin current: Ix(u1:2)
Ignoring empty pin current: Ix(u1:3)
Ignoring empty pin current: Ix(u1:1)
Ignoring empty pin current: Ix(u1:2)
Ignoring empty pin current: Ix(u1:3)

Date: Sun Sep 03 15:18:13 2017
Total elapsed time: 0.172 seconds.

tnom = 27
temp = 27
method = modified trap
totiter = 10823
traniter = 10791
tranpoints = 3947
accept = 3094
rejected = 853
matrix size = 33
fillins = 16
solver = Normal
Matrix Compiler1: 2.10 KB object code size  0.7/0.4/[0.2]
Matrix Compiler2: off  [0.3]/0.4/0.3

