Circuit: * C:\Users\Laptop\Desktop\Hyperloop\F2017_Control\circuits\CircuitSpice\SolenoidSimulation\SolenoidSimulation.asc

Direct Newton iteration for .op point succeeded.
Ignoring empty pin current: Ix(u1:1)
Ignoring empty pin current: Ix(u1:2)
Ignoring empty pin current: Ix(u1:3)
Ignoring empty pin current: Ix(u1:1)
Ignoring empty pin current: Ix(u1:2)
Ignoring empty pin current: Ix(u1:3)

Date: Sat Sep 02 21:41:07 2017
Total elapsed time: 0.090 seconds.

tnom = 27
temp = 27
method = modified trap
totiter = 2868
traniter = 2836
tranpoints = 1282
accept = 1224
rejected = 58
matrix size = 23
fillins = 4
solver = Normal
Matrix Compiler1: 1.62 KB object code size  0.5/0.3/[0.2]
Matrix Compiler2: off  [0.1]/0.3/0.3

