Circuit: * H:\MITCHELL STUFF 2\Work\Berkeley\Berkeley_bLoop\F2017_Control\CircuitSchematics\GenericSolenoid\GenericSolenoidSpice.asc

Direct Newton iteration for .op point succeeded.

Date: Sat Aug 26 16:41:44 2017
Total elapsed time: 0.111 seconds.

tnom = 27
temp = 27
method = modified trap
totiter = 2868
traniter = 2836
tranpoints = 1282
accept = 1224
rejected = 58
matrix size = 23
fillins = 4
solver = Normal
Matrix Compiler1: 1.62 KB object code size  0.6/0.5/[0.2]
Matrix Compiler2: off  [0.4]/0.6/0.9

