Circuit: * C:\Users\Laptop\Desktop\Hyperloop\F2017_ControlCode\CircuitSchematics\GenericSolenoid\GenericSolenoidSpice.asc

Direct Newton iteration for .op point succeeded.

Date: Sat Aug 26 11:39:06 2017
Total elapsed time: 0.116 seconds.

tnom = 27
temp = 27
method = modified trap
totiter = 3074
traniter = 3042
tranpoints = 1256
accept = 1206
rejected = 50
matrix size = 29
fillins = 11
solver = Normal
Matrix Compiler1: 2.33 KB object code size  0.6/0.4/[0.1]
Matrix Compiler2: off  [0.2]/0.4/0.4

